LAMMPS (2 Aug 2023 - Update 1)
Loaded 1 plugins from C:\Users\moham\AppData\Local\LAMMPS 64-bit 2Aug2023\plugins
###############################################
# LAMMPS script for a polymer
###############################################

###
# Box and units  (use LJ units and periodic boundaries)
###

units lj
atom_style angle         # atoms with bonds and angles

boundary p p p

###
# Pair interactions require lists of neighbours to be calculated
###
neighbor 1.9 bin
neigh_modify every 1 delay 1 check yes

###
# READ "start" data file
###
read_data initial_configuration.txt
Reading data file ...
  orthogonal box = (-25 -25 -25) to (25 25 25)
  reading atoms ...
  200 atoms
  reading velocities ...
  200 velocities
  scanning bonds ...
  scanning angles ...
  reading bonds ...
  199 bonds
  reading angles ...
  198 angles
Finding 1-2 1-3 1-4 neighbors ...
     2 = max # of 1-2 neighbors
     2 = max # of 1-3 neighbors
     4 = max # of 1-4 neighbors
     6 = max # of special neighbors

###
# Generate regular RESTART files to store state of simulation
###
restart 5000 polymer.restart

###
# Reset timestep
###
reset_timestep 0

###
# Define groups
###
group all type 1  #(atom type 1 is group 'all')
200 atoms in group all

###
# Dump configurations
###
dump dum1 all custom 1000 dump.DNA id type x y z ix iy iz
# every 1000 time steps, each atom's id, type, x,y,z coords and x,y,z image flages are output.
# image flags count how many times each atom has moved through a periodic boundary

## angles
angle_style  cosine
angle_coeff   1  20.0
# this choice gives a polymer with the same persistence length as DNA

## Between bonded atoms
bond_style   harmonic
bond_coeff   1   90.0   1.1

## Between non-bonded atoms
pair_style     soft 1.12246152962189
#  pair_coeff for soft, specify 3:
#    * atom type interacting with
#    * atom type
#    * energy
#    * cutoff
pair_coeff * *  100.0 1.12246152962189

###
# Set up fixes
###
variable seed equal 54654651     # a seed for the thermostat

fix 1 all nve                             # NVE integrator
fix 2 all langevin   1.0 1.0 1.0 54654651

##### Output thermodynamic info  (temperature, energy, pressure, etc.) #####
thermo 1000
thermo_style   custom   step  temp  epair  emol  press  vol
############################################################################

##### Output thermodynamic info to file  ###################################
variable t equal step
variable mytemp equal temp
variable myepair equal epair
############################################################################

############################################################################
#### Set up a compute for R_g
compute myRG2compute all gyration
#### and write it to a file
variable RG2 equal c_myRG2compute
############################################################################

###
# set timestep of integrator
###
timestep 0.01

###
# run integration for a number of steps to equilibrate with soft potnentials
###

run 5000
Generated 0 of 0 mixed pair_coeff terms from geometric mixing rule
Step          Temp          E_pair         E_mol          Press          Volume
0   0              371.89355      40.637978      0.3909599      125000
Loop time of 0.27947 on 1 procs for 5000 steps with 200 atoms

write_restart DNA.equlilb.restart
System init for write_restart ...
Generated 0 of 0 mixed pair_coeff terms from geometric mixing rule

###
# Now switch to LJ potential and FENE bonds

## Between bonded atoms
bond_style   fene
special_bonds fene #<=== I M P O R T A N T prevents LJ from being counted twice
Finding 1-2 1-3 1-4 neighbors ...
     2 = max # of 1-2 neighbors
     6 = max # of special neighbors
# For style FENE, specify:
#   * bond type
#   * K (energy/distance^2)
#   * R0 (distance)
#   * epsilon
#   * sigma
bond_coeff   1    30.0   1.6   1.0   1.0

## Between non-bonded atoms
pair_style      lj/cut 1.12246152962189
pair_modify shift yes        # option to ensure energy is calculated corectly
#  pair_coeff for LJ, specify 4:
#    * atom type interacting with
#    * atom type
#    * energy
#    * mean diameter of the two atom types
#    * cutoff
pair_coeff      1 1 1.0 1.0 1.12246152962189

###
# now do a longer run
###

run 50000
Generated 0 of 0 mixed pair_coeff terms from geometric mixing rule
Step          Temp          E_pair         E_mol          Press          Volume
5000   0.91689298     0              26.910912     -0.033300405    125000
Averages over the last 26 of 51 rows, steps 30000 to 55000:
Temp E_pair E_mol Press Volume
1.00288 3.52762e-05 21.0091 0.000181852 125000
Loop time of 4.25067 on 1 procs for 50000 steps with 200 atoms

#### write a final restart file
write_restart final.restart
System init for write_restart ...
Generated 0 of 0 mixed pair_coeff terms from geometric mixing rule
