LAMMPS (2 Aug 2023 - Update 1)
Loaded 1 plugins from C:\Users\moham\AppData\Local\LAMMPS 64-bit 2Aug2023\plugins
# Input file for uniaxial compressive loading of single crystal aluminum
# Mark Tschopp, November 2010

# ------------------------ INITIALIZATION ----------------------------
units 		metal
dimension	3
boundary	p	p	p
atom_style	atomic
variable latparam equal 3.61
# Variable material string Cu

# ----------------------- ATOM DEFINITION ----------------------------
lattice		fcc 3.61
Lattice spacing in x,y,z = 3.61 3.61 3.61
region		whole block 0 10 0 10 0 10
create_box	1 whole
Created orthogonal box = (0 0 0) to (36.1 36.1 36.1)

lattice 	fcc 3.61 orient x 1 0 0 orient y 0 1 0 orient z 0 0 1
Lattice spacing in x,y,z = 3.61 3.61 3.61
create_atoms	1 region whole
Created 4000 atoms

# ------------------------ FORCE FIELDS ------------------------------
pair_style	meam
pair_coeff	* * library.meam Cu Cu.meam Cu
Reading MEAM library file C:\Users\moham\AppData\Local\LAMMPS 64-bit 2Aug2023\Potentials\library.meam with DATE: 2012-06-29
Reading MEAM potential file C:\Users\moham\AppData\Local\LAMMPS 64-bit 2Aug2023\Potentials\Cu.meam with DATE: 2007-06-11

# ------------------------- SETTINGS ---------------------------------
compute csym all centro/atom fcc
compute peratom all pe/atom

######################################
# EQUILIBRATION
reset_timestep	0
timestep 0.005
velocity all create 300 12345 mom yes rot no
fix 1 all npt temp 300 300 1 iso 0 0 1 drag 1

# Set thermo output
thermo 100
thermo_style custom step lx ly lz press pxx pyy pzz pe temp

# Run for at least 10 picosecond (assuming 1 fs timestep)
run 4000
Step           Lx             Ly             Lz           Press           Pxx            Pyy            Pzz           PotEng          Temp
0   36.1           36.1           36.1           15228.088      15158.711      15282.495      15243.059     -14158.578      300
Averages over the last 21 of 41 rows, steps 2000 to 4000:
Lx Ly Lz Press Pxx Pyy Pzz PotEng Temp
36.2946 36.2946 36.2946 51.9591 21.4167 146.309 -11.8488 -14026.9 289.498
Loop time of 169.847 on 1 procs for 4000 steps with 4000 atoms

unfix 1

# Store final cell length for strain calculations
variable tmp equal "lx"
variable L0 equal 36.2964667154771
Initial Length, L0: 36.2964667154771

######################################
# DEFORMATION
reset_timestep	0

fix		1 all npt temp 300 300 1 y 0 0 1 z 0 0 1 drag 1
variable srate equal 1.0e10
variable srate1 equal "-v_srate / 1.0e12"
fix		2 all deform 1 x erate -0.01 units box remap x

# Output strain and stress info to file
# for units metal, pressure is in [bars] = 100 [kPa] = 1/10000 [GPa]
# p2, p3, p4 are in GPa
variable strain equal "(lx - v_L0)/v_L0"
variable p1 equal "v_strain"
variable p2 equal "-pxx/10000"
variable p3 equal "-pyy/10000"
variable p4 equal "-pzz/10000"

# Use cfg for AtomEye
dump 		1 all custom 250 dump.Cu.comp.* id xs ys zs c_csym c_peratom fx fy fz

# Display thermo
thermo 	100
thermo_style	custom step v_strain temp v_p2 v_p3 v_p4 ke pe press

run		4000
Step        v_strain         Temp           v_p2           v_p3           v_p4          KinEng         PotEng         Press
0  -1.370326e-15   301.80574     -0.014401561    0.026738111    0.014568439    156.0068      -14024.866     -89.683294
Averages over the last 21 of 41 rows, steps 2000 to 4000:
v_strain Temp v_p2 v_p3 v_p4 KinEng PotEng Press
-0.15 299.478 -0.860584 -0.0219482 -0.0084213 154.803 -13949.9 2969.84
Loop time of 153.85 on 1 procs for 4000 steps with 4000 atoms

######################################
# SIMULATION DONE
print "All done"
All done
