LAMMPS (2 Aug 2023 - Update 1)
Loaded 1 plugins from C:\Users\moham\AppData\Local\LAMMPS 64-bit 2Aug2023\plugins

# ------------------------ INITIALIZATION ----------------------------
units 		lj
dimension	3
boundary	p	p	p
atom_style	atomic

# ----------------------- ATOM DEFINITION ----------------------------
#lattice		fcc 4.58
region		myregion block 0 50 0 50 0 50
create_box	2 myregion
Created orthogonal box = (0 0 0) to (50 50 50)

create_atoms 1 random 1500 1234 myregion
Created 1500 atoms
create_atoms 2 random 200  123  myregion
Created 200 atoms

mass 1 39.948
mass 2 20.0

# ------------------------ FORCE FIELDS ------------------------------
pair_style	lj/cut 3.5
pair_coeff	1 1 1.0 1.0
pair_coeff	2 2 1.0 1.0
neigh_modify every 1 delay 5 check yes

# ------------------------  MINIMIZATION ------------------------------
minimize 1.0e-20 1.0e-20 10000 10000
Generated 1 of 1 mixed pair_coeff terms from geometric mixing rule
Step          Temp          E_pair         E_mol          TotEng         Press
0   0              5215587        0              5215587        283731.19
Loop time of 1.58418 on 1 procs for 5134 steps with 1700 atoms

Minimization stats:
  Stopping criterion = energy tolerance
  Energy initial, next-to-last, final =
  Force two-norm initial, final = 9.0177023e+11 1.5822119e-05
  Force max component initial, final = 5.3566519e+11 8.7414535e-06
  Final line search alpha, max atom move = 1 8.7414535e-06
  Iterations, force evaluations = 5134 9881

timestep 0.001

# ------------------------  EQUILIBRATION ------------------------------
velocity all create 400 12345 dist gaussian mom yes rot no
fix 1 all nve

dump 		dump_1 all custom 250 yt.dump id type x y z ix iy iz  vx vy vz
thermo_style	custom step time temp pe ke etotal press vol

thermo 250
run 100000
Generated 1 of 1 mixed pair_coeff terms from geometric mixing rule
Step          Time           Temp          PotEng         KinEng         TotEng         Press          Volume
5134   25.67          400           -1.5010872      599.64706      598.14597      5.4368         125000
Averages over the last 201 of 402 rows, steps 55250 to 105134:
Temp PotEng KinEng TotEng Press Volume
398.414 0.87793 597.27 598.148 5.47221 125000
Loop time of 15.9676 on 1 procs for 100000 steps with 1700 atoms

undump dump_1
unfix 1

######################################
# SIMULATION DONE
print "All done"
All done
