LAMMPS (2 Aug 2023 - Update 1)
Loaded 1 plugins from C:\Users\moham\AppData\Local\LAMMPS 64-bit 2Aug2023\plugins

# ------------------------ INITIALIZATION ----------------------------
units 		metal
dimension	3
boundary	p	p	p
atom_style	atomic

# ----------------------- ATOM DEFINITION ----------------------------
lattice		fcc 4.58
Lattice spacing in x,y,z = 4.58 4.58 4.58
region		myregion block 0 10 0 10 0 10
create_box	1 myregion
Created orthogonal box = (0 0 0) to (45.8 45.8 45.8)
create_atoms	1 region myregion
Created 4000 atoms

mass 1 39.948

# ------------------------ FORCE FIELDS ------------------------------
pair_style	lj/cut 10
pair_coeff	* * 1 1

# ------------------------  MINIMIZATION ------------------------------
minimize 1.0e-20 1.0e-20 10000 10000
Generated 0 of 0 mixed pair_coeff terms from geometric mixing rule
Step          Temp          E_pair         E_mol          TotEng         Press
0   0             -98.782187      0             -98.782187     -3292.3187
Loop time of 0.047755 on 1 procs for 1 steps with 4000 atoms

Minimization stats:
  Stopping criterion = quadratic factors are zero
  Energy initial, next-to-last, final =
  Force two-norm initial, final = 4.7730311e-15 4.7730311e-15
  Force max component initial, final = 1.0976192e-16 1.0976192e-16
  Final line search alpha, max atom move = 1 1.0976192e-16
  Iterations, force evaluations = 1 2

timestep 0.001

# ------------------------  EQUILIBRATION ------------------------------
velocity all create 400 12345 dist gaussian mom yes rot no
fix 1 all nve

dump 		dump_1 all custom 250 yt.dump id type x y z ix iy iz  vx vy vz
thermo_style	custom step time temp pe ke etotal press vol

thermo 250
run 5000
Generated 0 of 0 mixed pair_coeff terms from geometric mixing rule
Step          Time           Temp          PotEng         KinEng         TotEng         Press          Volume
1   0.001          400           -98.782187      206.76453      107.98234     -993.53191      96071.912
Averages over the last 11 of 22 rows, steps 2750 to 5001:
Temp PotEng KinEng TotEng Press Volume
8350.33 -4211.38 4316.38 105.004 21042.9 96071.9
Loop time of 40.231 on 1 procs for 5000 steps with 4000 atoms

undump dump_1
unfix 1

######################################
# SIMULATION DONE
print "All done"
All done
